Circuit: * C:\Users\Wiggins Desktop\Documents\Lee\Electronics\Dummy Load\LTSpice\Auto Selector - Arduino.asc

Direct Newton iteration for .op point succeeded.

Date: Sat Sep 21 20:43:47 2013
Total elapsed time: 0.127 seconds.

tnom = 27
temp = 27
method = modified trap
totiter = 2123
traniter = 2082
tranpoints = 1042
accept = 1042
rejected = 0
matrix size = 42
fillins = 83
solver = Normal
Matrix Compiler1: 6.85 KB object code size  1.4/0.6/[0.4]
Matrix Compiler2: off  [0.4]/0.6/0.7


