Circuit: * C:\Users\Wiggins Desktop\Documents\Lee\Electronics\Dummy Load\LTSpice\Spice Model - Version 1.asc

Direct Newton iteration failed to find .op point.  (Use ".option noopiter" to skip.)
Starting Gmin stepping
Gmin = 10
Gmin = 1.07374
Gmin = 0.115292
Gmin = 0.0123794
Gmin = 0.00132923
Gmin = 0.000142725
Gmin = 1.5325e-005
Gmin = 1.6455e-006
Gmin = 1.76685e-007
Gmin = 1.89714e-008
Gmin = 2.03704e-009
Gmin = 2.18725e-010
Gmin = 2.34854e-011
Gmin = 2.52173e-012
Gmin = 2.70769e-013
Gmin = 0
Gmin stepping succeeded in finding the operating point.


Date: Wed Aug 28 16:31:22 2013
Total elapsed time: 0.120 seconds.

tnom = 27
temp = 27
method = modified trap
totiter = 2480
traniter = 2082
tranpoints = 1042
accept = 1042
rejected = 0
matrix size = 40
fillins = 50
solver = Normal
Thread vector: 21.7/15.3[2] 3.2/2.3[2] 1.9/1.5[2] 0.2/0.7[1]  2592/500
Matrix Compiler1: 4.06 KB object code size  1.1/0.4/[0.3]
Matrix Compiler2: off  [0.4]/0.6/0.7


